%nprocshared=4
%chk=FuncsPBEII2nd.chk
%Mem=3GB
# td= (nstates=6, root=2) PBE/6-31+G* Opt density=current

FuncsPBEII2nd

0 1
 C                 -2.15106300    0.68920800    0.00008800
 C                 -2.12792700   -0.71581800    0.00007500
 C                 -0.93229700   -1.41310000   -0.00001100
 C                  0.24691100   -0.67020100   -0.00004200
 C                  0.24819300    0.74829900    0.00000000
 C                 -0.97947400    1.42352600    0.00003200
 N                  1.56177400   -1.07759200   -0.00028500
 C                  1.62013300    1.16290000   -0.00015700
 C                  2.38201300    0.03080600    0.00024800
 H                  1.87631500   -2.03001100    0.00043800
 H                  1.99217300    2.17301000   -0.00034800
 H                  3.45254900   -0.08242500    0.00040800
 H                 -3.06159400   -1.26202000    0.00008800
 H                 -0.91725200   -2.49534200   -0.00007300
 H                 -3.10420300    1.20078500    0.00009000
 H                 -1.00934800    2.50542100   -0.00001500

