%chk=C:\Users\cwaldt\.ssh\wwk-repository\Test IndoleJune5.chk
# opt b3lyp/3-21g* geom=connectivity pop=full

IndoleJune5

0 1
 C                 -2.15935900    0.69162400    0.00011300
 C                 -2.13588000   -0.71874400   -0.00001800
 C                 -0.93512100   -1.41881800   -0.00005300
 C                  0.24790600   -0.67196600   -0.00001200
 C                  0.24999400    0.75191400   -0.00005900
 C                 -0.98269000    1.42883600   -0.00005900
 N                  1.56678100   -1.08097400   -0.00025400
 C                  1.62599300    1.16698100   -0.00010300
 C                  2.39037900    0.03047400    0.00027200
 H                  1.88117200   -2.03853600    0.00076000
 H                  1.99815100    2.18234400   -0.00037000
 H                  3.46533300   -0.08657000    0.00040200
 H                 -3.07324000   -1.26832200    0.00023200
 H                 -0.91788900   -2.50582300   -0.00015500
 H                 -3.11662800    1.20635200    0.00023500
 H                 -1.01169300    2.51555600    0.00019500

 1 2 1.5 6 1.5 15 1.0
 2 3 1.5 13 1.0
 3 4 1.5 14 1.0
 4 5 1.5 7 1.5
 5 6 1.5 8 1.5
 6 16 1.0
 7 9 1.0 10 1.0
 8 9 2.0 11 1.0
 9 12 1.0
 10
 11
 12
 13
 14
 15
 16

